<NUMBER OF ZONES> 189
<TOTAL OD FLOW> 207305.603333
<END OF METADATA>

Origin 1
	53 :	0.333333333333;	146 :	0.4;	186 :	0.4;	159 :	1.0;	86 :	1.5;	134 :	1.5;	112 :	1.5;	98 :	2.0;	88 :	2.0;	157 :	2.0;	14 :	2.0;	174 :	2.0;	105 :	2.0;	183 :	2.0;	104 :	2.0;	170 :	2.0;	168 :	2.0;	151 :	2.0;	150 :	2.0;	135 :	3.0;	166 :	3.0;	35 :	3.0;	189 :	3.66666666667;	76 :	4.0;	141 :	4.0;	25 :	4.0;	144 :	4.0;	11 :	4.0;	22 :	4.0;	107 :	4.0;	147 :	4.0;	148 :	4.5;	173 :	4.75;	56 :	4.8;	123 :	4.8;	136 :	5.0;	100 :	5.0;	113 :	5.0;	59 :	5.0;	38 :	5.08333333333;	21 :	5.33333333333;	190 :	5.5;	27 :	5.8;	158 :	5.8;	163 :	6.0;	124 :	6.0;	32 :	6.0;	182 :	6.0;	75 :	6.5;	180 :	6.5;	137 :	7.0;	57 :	7.0;	143 :	7.0;	84 :	8.0;	97 :	8.46666666667;	54 :	9.0;	184 :	9.0;	145 :	9.0;	120 :	9.5;	106 :	9.5;	94 :	9.8;	41 :	10.8;	80 :	10.8;	162 :	11.0;	62 :	11.0;	181 :	11.0;	47 :	11.8;	103 :	13.0;	66 :	13.0;	79 :	13.0;	87 :	15.0;	60 :	15.8;	69 :	16.0;	101 :	16.5;	58 :	16.8;	51 :	17.0;	194 :	17.0;	33 :	19.5;	61 :	20.0;	26 :	20.4666666667;	37 :	21.0;	28 :	22.0;	89 :	22.0;	70 :	22.2;	102 :	25.0;	77 :	25.0;	127 :	25.0;	192 :	26.0;	42 :	26.2;	43 :	26.5666666667;	20 :	27.0;	30 :	27.3333333333;	63 :	27.7;	19 :	30.1;	13 :	30.3;	191 :	30.4666666667;	6 :	31.2666666667;	45 :	32.0;	46 :	32.1;	48 :	33.0;	31 :	33.6666666667;	12 :	34.6333333333;	29 :	36.8;	67 :	37.3;	15 :	37.8;	39 :	38.3;	9 :	39.1;	49 :	39.3666666667;	40 :	42.2666666667;	193 :	42.5;	34 :	47.6666666667;	36 :	50.7666666667;	7 :	52.5333333333;	8 :	53.3;	78 :	55.1333333333;	95 :	55.2;	10 :	55.7;	93 :	58.0;	18 :	60.1666666667;	17 :	63.4;	65 :	64.0;	96 :	66.3;	50 :	69.6;	3 :	70.1333333333;	5 :	71.1333333333;	85 :	78.3;	44 :	83.8666666667;	2 :	106.3;	64 :	108.216666667;	68 :	136.8;	4 :	177.166666667;	16 :	209.4;	52 :	254.2;
Origin 2
	107 :	0.8;	155 :	0.8;	183 :	1.6;	153 :	2.0;	172 :	2.0;	108 :	2.0;	31 :	2.0;	25 :	2.0;	55 :	2.0;	47 :	2.0;	61 :	3.0;	174 :	3.0;	143 :	3.0;	119 :	3.0;	138 :	3.0;	62 :	3.0;	53 :	3.0;	120 :	3.0;	110 :	3.8;	171 :	3.8;	63 :	3.8;	154 :	3.9;	169 :	4.0;	58 :	4.0;	187 :	4.0;	185 :	4.0;	118 :	4.8;	132 :	4.8;	56 :	5.0;	189 :	5.0;	129 :	5.0;	48 :	5.0;	21 :	5.0;	27 :	5.5;	175 :	6.0;	151 :	6.0;	115 :	6.0;	134 :	6.0;	161 :	6.0;	72 :	6.0;	182 :	6.0;	124 :	6.33333333333;	146 :	6.8;	176 :	7.8;	24 :	7.8;	98 :	7.8;	147 :	8.0;	30 :	8.0;	164 :	8.0;	82 :	8.0;	39 :	8.0;	91 :	8.0;	28 :	8.33333333333;	92 :	9.0;	160 :	9.0;	100 :	9.0;	181 :	9.33333333333;	116 :	9.4;	167 :	9.8;	12 :	9.8;	123 :	10.0;	188 :	10.0;	173 :	10.0;	104 :	10.0;	105 :	10.0;	130 :	10.0;	43 :	10.0;	71 :	10.0;	157 :	10.8;	32 :	11.0;	170 :	11.0;	26 :	11.0;	66 :	11.0;	139 :	11.8;	190 :	12.0;	184 :	12.0;	148 :	13.0;	86 :	13.0;	38 :	13.0;	29 :	13.3;	166 :	13.8;	60 :	14.0;	89 :	14.0;	168 :	14.8;	75 :	15.0;	144 :	15.5;	145 :	15.5;	178 :	16.0;	133 :	16.0;	22 :	16.0;	135 :	16.5;	14 :	17.4333333333;	87 :	17.4666666667;	33 :	18.8;	101 :	19.0;	69 :	19.3;	57 :	21.8;	97 :	21.8;	41 :	21.8;	42 :	21.8666666667;	40 :	22.4;	20 :	24.0;	11 :	24.0;	128 :	24.4;	79 :	25.0;	106 :	25.3;	88 :	27.0;	49 :	28.0;	64 :	28.4333333333;	37 :	29.0;	46 :	29.0;	186 :	29.1;	45 :	29.5;	80 :	29.6666666667;	163 :	30.4;	136 :	30.8;	180 :	31.5;	162 :	32.6666666667;	137 :	32.8;	70 :	35.2;	50 :	37.2;	19 :	37.8;	34 :	38.8;	36 :	39.5;	77 :	40.6;	192 :	40.6333333333;	103 :	42.0;	93 :	43.8;	15 :	45.5;	65 :	49.3;	1 :	49.6;	7 :	52.0;	18 :	52.6;	78 :	54.6;	94 :	60.3333333333;	85 :	65.6333333333;	44 :	66.2;	127 :	69.3;	68 :	86.1;	17 :	93.9;	67 :	98.1666666667;	102 :	104.966666667;	6 :	107.766666667;	191 :	115.333333333;	52 :	121.1;	9 :	125.766666667;	3 :	127.2;	5 :	140.6;	8 :	147.816666667;	193 :	220.716666667;	16 :	248.7;	10 :	365.916666667;	95 :	416.6;	4 :	477.016666667;	96 :	586.766666667;
Origin 3
	21 :	0.666666666667;	135 :	0.8;	134 :	0.8;	89 :	0.8;	56 :	1.0;	43 :	1.0;	163 :	1.3;	191 :	2.0;	190 :	2.0;	154 :	2.0;	19 :	2.0;	15 :	2.0;	61 :	2.0;	166 :	2.0;	80 :	2.0;	76 :	2.0;	63 :	2.0;	28 :	2.0;	123 :	2.0;	87 :	2.0;	139 :	2.0;	178 :	2.0;	148 :	2.0;	75 :	2.0;	151 :	2.0;	94 :	2.0;	45 :	2.0;	48 :	2.0;	47 :	2.0;	46 :	2.8;	36 :	2.8;	33 :	3.0;	92 :	3.0;	100 :	3.0;	40 :	3.33333333333;	1 :	3.8;	18 :	4.0;	57 :	4.0;	73 :	4.0;	72 :	4.0;	58 :	4.0;	168 :	4.0;	118 :	4.0;	136 :	4.0;	98 :	4.0;	49 :	4.0;	173 :	4.5;	50 :	4.8;	162 :	5.0;	169 :	5.0;	133 :	5.0;	146 :	5.0;	42 :	5.0;	39 :	5.8;	34 :	6.0;	127 :	6.0;	5 :	6.6;	68 :	7.0;	160 :	7.0;	79 :	7.0;	186 :	7.0;	14 :	8.0;	37 :	8.0;	41 :	8.0;	44 :	8.0;	7 :	8.5;	84 :	9.0;	64 :	9.0;	6 :	10.8;	11 :	11.0;	52 :	12.0;	78 :	12.0;	102 :	13.0;	93 :	14.0;	67 :	15.0;	17 :	15.6666666667;	12 :	18.5;	95 :	19.0;	65 :	21.3;	193 :	23.4;	8 :	24.6;	9 :	27.4;	85 :	28.25;	96 :	30.7666666667;	16 :	34.8;	2 :	38.0666666667;	4 :	40.9;	10 :	49.4;
Origin 4
	165 :	0.8;	97 :	1.0;	169 :	1.33333333333;	148 :	1.5;	120 :	1.6;	73 :	2.0;	114 :	2.0;	53 :	2.0;	105 :	2.0;	61 :	2.0;	174 :	2.0;	130 :	2.0;	175 :	2.0;	109 :	2.0;	119 :	2.0;	134 :	2.4;	179 :	2.5;	35 :	3.0;	81 :	3.0;	184 :	3.0;	55 :	3.0;	159 :	3.0;	82 :	3.0;	154 :	3.0;	167 :	3.0;	177 :	3.0;	138 :	4.0;	139 :	4.0;	117 :	4.0;	51 :	4.0;	194 :	4.0;	62 :	4.0;	172 :	4.0;	58 :	4.0;	180 :	4.0;	171 :	4.0;	144 :	4.5;	137 :	4.6;	72 :	4.8;	133 :	4.8;	150 :	5.0;	91 :	5.0;	24 :	5.0;	86 :	6.0;	54 :	6.0;	123 :	6.0;	71 :	6.0;	140 :	6.0;	100 :	6.5;	164 :	6.8;	28 :	6.8;	186 :	7.0;	126 :	7.0;	88 :	7.0;	59 :	7.0;	118 :	7.0;	136 :	7.0;	158 :	7.4;	69 :	7.8;	21 :	8.0;	182 :	8.0;	116 :	8.0;	22 :	8.8;	84 :	9.0;	129 :	9.0;	37 :	9.0;	143 :	9.0;	27 :	9.2;	41 :	9.5;	157 :	9.66666666667;	76 :	9.8;	132 :	10.0;	56 :	10.0;	104 :	10.0;	107 :	10.0;	178 :	11.0;	46 :	11.0;	33 :	11.8;	160 :	11.8666666667;	13 :	12.0;	106 :	12.0;	124 :	12.5;	135 :	12.6;	145 :	12.6666666667;	48 :	13.0;	89 :	13.0;	173 :	13.0;	168 :	13.2;	162 :	13.4;	66 :	13.6;	190 :	14.0;	78 :	14.0;	50 :	14.9;	26 :	15.0;	176 :	15.0;	29 :	15.7;	87 :	16.0;	32 :	16.0;	20 :	16.2;	39 :	16.3;	40 :	16.8;	38 :	17.0;	47 :	18.0;	146 :	18.0;	14 :	18.0;	60 :	18.0;	30 :	18.0;	79 :	18.0;	103 :	19.0;	166 :	19.3333333333;	101 :	19.55;	80 :	20.0;	43 :	22.0;	92 :	22.8;	12 :	24.0;	42 :	24.5;	49 :	25.8333333333;	102 :	27.0;	163 :	27.4;	31 :	29.5;	57 :	33.0;	77 :	35.8;	192 :	36.0;	75 :	37.3333333333;	11 :	39.8;	94 :	42.2666666667;	63 :	42.8;	127 :	43.5;	70 :	44.4;	15 :	48.0;	36 :	50.3;	19 :	51.3;	65 :	51.7;	45 :	53.8333333333;	7 :	57.5;	18 :	57.5;	93 :	57.6666666667;	64 :	58.0;	85 :	59.3666666667;	44 :	60.5666666667;	34 :	66.4;	191 :	75.0;	17 :	85.1333333333;	68 :	91.26;	67 :	102.766666667;	193 :	112.716666667;	1 :	119.3;	8 :	126.866666667;	9 :	127.0;	5 :	141.033333333;	6 :	157.716666667;	95 :	160.666666667;	52 :	184.766666667;	16 :	213.05;	3 :	218.266666667;	96 :	227.166666667;	10 :	291.583333333;	2 :	535.6;
Origin 5
	32 :	0.8;	6 :	1.0;	7 :	1.66666666667;	36 :	2.0;	145 :	2.0;	2 :	2.0;	40 :	2.0;	67 :	2.0;	132 :	2.0;	8 :	2.0;	24 :	3.0;	77 :	3.0;	16 :	3.0;	181 :	3.0;	42 :	4.0;	52 :	4.0;	11 :	4.0;	79 :	4.0;	93 :	5.0;	4 :	5.0;	15 :	5.0;	10 :	5.0;	17 :	5.0;	31 :	5.0;	68 :	6.0;	23 :	6.0;	57 :	7.0;	34 :	8.0;	45 :	11.0;	44 :	11.0;	18 :	11.0;	70 :	11.8;	65 :	13.0;	85 :	14.0;
Origin 6
	78 :	0.8;	70 :	0.8;	139 :	1.0;	193 :	1.5;	8 :	2.0;	182 :	2.0;	9 :	2.0;	116 :	2.0;	137 :	2.0;	50 :	2.0;	13 :	2.5;	52 :	3.0;	79 :	3.0;	96 :	3.0;	120 :	3.0;	45 :	3.0;	69 :	3.0;	57 :	3.0;	192 :	3.0;	49 :	4.0;	75 :	4.0;	191 :	4.0;	135 :	4.0;	133 :	4.0;	97 :	4.0;	102 :	4.0;	65 :	4.0;	14 :	4.0;	174 :	4.0;	63 :	4.0;	36 :	4.8;	77 :	5.0;	34 :	5.0;	68 :	5.0;	95 :	5.0;	92 :	5.0;	80 :	5.0;	4 :	5.0;	143 :	5.0;	31 :	6.0;	72 :	6.0;	127 :	6.0;	47 :	6.33333333333;	93 :	7.4;	18 :	7.5;	11 :	8.0;	46 :	9.0;	16 :	9.8;	17 :	10.0;	5 :	12.0;	67 :	12.5;	3 :	12.5;	7 :	14.5;	85 :	14.8;	10 :	15.5;	2 :	18.0;
Origin 7
	76 :	0.8;	171 :	0.8;	191 :	0.8;	163 :	0.8;	63 :	1.0;	75 :	1.25;	60 :	1.5;	1 :	2.0;	28 :	2.0;	70 :	2.0;	64 :	2.0;	13 :	2.0;	162 :	2.0;	157 :	2.0;	77 :	2.0;	32 :	2.0;	40 :	2.8;	10 :	2.8;	20 :	3.0;	116 :	3.0;	12 :	3.0;	38 :	3.0;	193 :	4.0;	57 :	4.0;	100 :	4.0;	3 :	4.0;	53 :	4.0;	95 :	4.0;	50 :	4.0;	46 :	4.0;	177 :	4.0;	79 :	4.8;	4 :	5.0;	192 :	5.0;	29 :	5.0;	47 :	5.0;	98 :	6.0;	6 :	7.0;	93 :	7.0;	37 :	7.0;	19 :	7.8;	15 :	7.8;	2 :	8.0;	49 :	8.0;	18 :	8.0;	8 :	8.5;	96 :	8.8;	36 :	9.0;	67 :	10.0;	45 :	10.0;	44 :	10.0;	34 :	11.0;	65 :	12.5;	85 :	17.5;	68 :	20.0;	5 :	21.0;	17 :	22.0;	52 :	24.8;	16 :	32.0;
Origin 8
	130 :	0.4;	12 :	2.0;	20 :	2.0;	44 :	2.0;	45 :	2.0;	66 :	2.0;	26 :	2.0;	133 :	2.0;	30 :	2.0;	145 :	2.0;	9 :	2.0;	102 :	2.66666666667;	21 :	3.0;	189 :	3.0;	41 :	3.5;	7 :	3.8;	165 :	4.0;	80 :	4.0;	36 :	4.0;	18 :	5.0;	157 :	5.0;	52 :	5.0;	29 :	5.0;	31 :	5.0;	78 :	5.0;	192 :	5.0;	57 :	6.0;	33 :	6.0;	34 :	6.0;	193 :	6.0;	85 :	6.8;	95 :	7.0;	127 :	7.0;	17 :	8.0;	77 :	8.0;	68 :	8.33333333333;	3 :	9.5;	86 :	10.0;	87 :	11.0;	96 :	13.3;	32 :	15.0;	191 :	17.0;	5 :	23.0;	16 :	25.0;
Origin 9
	36 :	0.266666666667;	158 :	0.8;	102 :	0.8;	75 :	0.8;	160 :	1.25;	191 :	1.5;	8 :	1.5;	34 :	2.0;	157 :	2.0;	185 :	2.0;	31 :	2.0;	45 :	2.0;	20 :	2.0;	5 :	2.0;	106 :	2.0;	187 :	3.0;	4 :	3.0;	190 :	3.0;	15 :	3.0;	48 :	3.0;	77 :	3.0;	62 :	3.0;	89 :	3.8;	6 :	4.0;	17 :	4.0;	180 :	4.4;	52 :	6.0;	95 :	7.0;	16 :	7.4;	92 :	7.5;	80 :	8.0;	192 :	10.8;	96 :	14.0;	193 :	24.2;
Origin 10
	138 :	0.333333333333;	171 :	0.4;	158 :	0.4;	116 :	0.4;	150 :	0.4;	123 :	0.75;	28 :	0.8;	173 :	1.0;	12 :	1.5;	101 :	2.0;	181 :	2.0;	178 :	2.0;	108 :	2.0;	194 :	2.0;	80 :	2.0;	32 :	2.0;	117 :	2.0;	92 :	2.0;	20 :	2.0;	167 :	2.0;	91 :	2.0;	128 :	2.0;	165 :	2.0;	70 :	2.0;	160 :	2.0;	120 :	2.0;	48 :	2.0;	38 :	2.4;	61 :	2.5;	22 :	2.5;	36 :	2.8;	134 :	2.8;	132 :	2.8;	63 :	3.0;	180 :	3.0;	76 :	3.0;	105 :	3.0;	47 :	3.0;	43 :	3.0;	50 :	3.4;	27 :	3.66666666667;	154 :	3.8;	44 :	3.8;	98 :	4.0;	109 :	4.0;	188 :	4.0;	184 :	4.0;	161 :	4.0;	151 :	4.0;	31 :	4.4;	191 :	4.5;	53 :	4.8;	176 :	5.0;	72 :	5.0;	177 :	5.0;	135 :	5.0;	130 :	5.0;	89 :	5.0;	71 :	5.0;	131 :	5.8;	143 :	5.8;	24 :	6.0;	186 :	6.0;	164 :	6.0;	57 :	6.13333333333;	60 :	6.8;	97 :	7.0;	84 :	7.0;	21 :	7.0;	29 :	7.0;	139 :	8.0;	145 :	8.0;	88 :	8.0;	162 :	8.0;	75 :	8.3;	168 :	8.4;	103 :	8.55;	26 :	9.0;	187 :	9.0;	93 :	9.0;	124 :	9.0;	30 :	9.0;	146 :	9.3;	59 :	10.0;	1 :	10.0;	37 :	10.0;	127 :	11.0;	79 :	12.0;	14 :	12.0;	41 :	12.0;	18 :	12.4;	183 :	13.0;	106 :	13.0;	45 :	13.3;	157 :	13.6666666667;	136 :	14.0;	7 :	14.6666666667;	190 :	15.0;	42 :	15.0;	40 :	15.0;	192 :	16.0;	46 :	16.0;	33 :	17.0;	78 :	17.5;	77 :	17.5;	87 :	17.5;	15 :	19.0;	64 :	20.6666666667;	19 :	21.0;	49 :	23.0;	52 :	25.8;	66 :	26.0;	137 :	26.6666666667;	85 :	27.0;	34 :	29.5;	68 :	39.6;	65 :	40.8333333333;	102 :	44.0;	67 :	46.2;	193 :	50.3;	9 :	51.1333333333;	94 :	59.6;	17 :	67.7666666667;	95 :	71.5;	8 :	78.8;	3 :	78.8333333333;	6 :	81.3;	5 :	85.4666666667;	16 :	94.3;	96 :	120.1;	4 :	158.1;	2 :	263.083333333;
Origin 11
	53 :	0.4;	54 :	0.4;	49 :	0.8;	87 :	0.8;	117 :	0.8;	25 :	0.8;	41 :	1.0;	194 :	1.0;	106 :	1.0;	52 :	1.4;	155 :	1.5;	169 :	2.0;	48 :	2.0;	103 :	2.0;	102 :	2.0;	79 :	2.0;	166 :	2.3;	2 :	2.4;	137 :	2.5;	24 :	2.5;	28 :	3.0;	64 :	3.0;	162 :	3.0;	15 :	3.0;	14 :	3.0;	76 :	3.0;	29 :	3.0;	191 :	3.66666666667;	139 :	4.0;	70 :	4.0;	105 :	4.0;	26 :	4.0;	9 :	4.83333333333;	58 :	5.0;	69 :	5.0;	19 :	5.0;	84 :	5.0;	67 :	5.4;	154 :	5.5;	78 :	5.8;	61 :	6.0;	22 :	6.0;	1 :	7.0;	33 :	7.0;	94 :	7.5;	160 :	8.0;	10 :	8.0;	190 :	8.0;	44 :	8.4;	42 :	8.9;	39 :	9.0;	18 :	9.0;	163 :	9.0;	45 :	9.5;	20 :	10.0;	193 :	10.0;	93 :	11.0;	75 :	11.5;	46 :	12.0;	96 :	12.5;	85 :	13.0;	43 :	13.0;	77 :	13.0;	32 :	13.0;	8 :	13.4666666667;	6 :	13.5;	34 :	14.7;	5 :	17.0;	7 :	17.1666666667;	36 :	18.5;	68 :	18.5;	95 :	27.3333333333;	65 :	31.3;	17 :	41.5;	16 :	69.1;
Origin 12
	55 :	0.266666666667;	91 :	0.8;	26 :	0.8;	15 :	0.8;	161 :	0.8;	24 :	1.0;	194 :	1.0;	45 :	1.4;	46 :	1.5;	151 :	2.0;	37 :	2.0;	87 :	2.0;	31 :	2.0;	63 :	2.0;	137 :	2.0;	168 :	2.0;	160 :	2.0;	190 :	2.0;	96 :	2.0;	163 :	2.0;	48 :	2.5;	186 :	3.0;	28 :	3.0;	166 :	3.0;	94 :	3.0;	47 :	3.0;	80 :	3.2;	49 :	3.4;	41 :	4.0;	43 :	4.0;	146 :	4.0;	20 :	4.0;	57 :	4.0;	193 :	4.0;	14 :	4.0;	167 :	4.0;	102 :	4.0;	89 :	4.0;	50 :	4.33333333333;	70 :	4.8;	86 :	5.0;	117 :	5.0;	118 :	5.0;	18 :	5.0;	133 :	5.0;	13 :	5.0;	9 :	5.0;	77 :	5.4;	40 :	5.8;	69 :	6.0;	66 :	6.0;	39 :	7.0;	27 :	7.0;	35 :	7.0;	106 :	7.0;	88 :	7.0;	191 :	7.0;	95 :	7.8;	30 :	8.0;	58 :	8.0;	11 :	8.0;	61 :	9.0;	93 :	9.13333333333;	32 :	9.4;	192 :	9.6;	19 :	10.5;	6 :	11.0;	1 :	11.0;	178 :	11.0;	65 :	12.0;	36 :	12.3;	101 :	13.0;	42 :	14.0;	4 :	14.0;	44 :	16.0;	67 :	16.5;	3 :	17.5;	52 :	17.5;	78 :	18.6;	7 :	19.5;	10 :	20.0;	2 :	22.8;	5 :	24.0;	85 :	26.5;	68 :	26.6;	8 :	27.0;	34 :	28.0;	17 :	56.5;	16 :	58.3;
Origin 13
	142 :	1.0;	39 :	1.0;	101 :	1.0;	19 :	1.0;	30 :	1.5;	76 :	2.0;	31 :	2.0;	38 :	2.0;	61 :	2.0;	60 :	2.0;	59 :	2.0;	102 :	2.0;	166 :	2.0;	128 :	2.0;	191 :	2.0;	51 :	2.0;	50 :	2.0;	14 :	2.66666666667;	47 :	3.0;	43 :	3.0;	176 :	3.0;	70 :	3.0;	56 :	3.0;	126 :	3.0;	163 :	3.0;	157 :	3.8;	11 :	4.0;	146 :	4.0;	6 :	4.0;	75 :	4.0;	37 :	4.0;	62 :	4.0;	18 :	4.0;	162 :	4.0;	123 :	4.0;	86 :	4.8;	145 :	5.0;	28 :	5.0;	24 :	5.0;	9 :	6.0;	20 :	6.0;	12 :	6.5;	77 :	7.0;	63 :	7.0;	54 :	7.0;	1 :	8.0;	94 :	8.0;	15 :	8.5;	192 :	9.0;	42 :	9.0;	41 :	9.0;	4 :	9.0;	193 :	10.0;	58 :	10.0;	96 :	10.0;	194 :	11.0;	3 :	11.0;	32 :	11.0;	84 :	11.6666666667;	93 :	12.5;	2 :	13.0;	46 :	13.5;	95 :	13.5;	40 :	14.4;	44 :	14.8;	10 :	15.0;	36 :	16.6666666667;	45 :	18.0;	17 :	19.3;	7 :	19.8;	85 :	21.5;	34 :	22.0;	49 :	22.5;	78 :	22.8;	52 :	26.0;	65 :	27.0;	68 :	31.0;	8 :	31.5;	5 :	32.6666666667;	67 :	46.8;	16 :	52.1333333333;
Origin 14
	51 :	0.8;	102 :	0.8;	23 :	0.8;	5 :	1.5;	26 :	1.5;	10 :	2.0;	9 :	2.0;	19 :	2.0;	21 :	2.0;	69 :	2.0;	40 :	2.0;	1 :	2.8;	191 :	3.0;	13 :	3.0;	42 :	3.0;	193 :	3.0;	76 :	3.0;	4 :	3.0;	8 :	3.8;	11 :	4.0;	15 :	4.0;	48 :	4.0;	18 :	4.0;	96 :	4.0;	60 :	4.0;	39 :	4.0;	28 :	4.0;	186 :	4.0;	6 :	4.0;	192 :	4.0;	136 :	4.5;	68 :	4.5;	124 :	5.0;	190 :	5.5;	44 :	5.5;	46 :	6.0;	47 :	6.0;	50 :	6.0;	95 :	6.0;	29 :	6.0;	85 :	7.0;	127 :	7.0;	78 :	7.5;	58 :	8.0;	63 :	8.0;	45 :	9.0;	3 :	9.0;	77 :	10.0;	2 :	13.0;	7 :	20.6666666667;	16 :	28.2666666667;
Origin 15
	69 :	0.8;	34 :	1.0;	19 :	1.0;	87 :	1.0;	86 :	2.0;	4 :	2.0;	180 :	2.0;	103 :	2.0;	41 :	2.0;	144 :	2.0;	191 :	2.0;	70 :	2.0;	67 :	2.0;	54 :	2.0;	77 :	2.0;	17 :	2.0;	173 :	2.0;	175 :	2.0;	18 :	2.0;	82 :	3.0;	43 :	3.0;	23 :	3.0;	32 :	4.0;	40 :	4.0;	10 :	4.0;	79 :	4.0;	37 :	4.0;	57 :	4.0;	6 :	5.0;	97 :	5.0;	96 :	5.0;	9 :	5.0;	66 :	5.0;	5 :	5.5;	45 :	6.0;	162 :	6.0;	85 :	6.0;	44 :	7.0;	13 :	7.0;	2 :	8.0;	52 :	8.0;	8 :	8.0;	36 :	8.0;	75 :	9.0;	42 :	9.8;	95 :	10.0;	68 :	15.0;	16 :	18.1;
Origin 16
	192 :	0.4;	9 :	0.8;	154 :	0.8;	94 :	1.0;	166 :	1.0;	151 :	1.5;	80 :	1.75;	91 :	2.0;	20 :	2.0;	43 :	2.0;	186 :	2.0;	2 :	2.0;	182 :	2.0;	3 :	2.0;	168 :	2.0;	62 :	2.0;	30 :	3.0;	148 :	3.0;	112 :	3.0;	118 :	3.0;	35 :	3.0;	145 :	3.0;	26 :	3.0;	162 :	3.0;	127 :	3.66666666667;	51 :	4.0;	161 :	4.0;	102 :	4.0;	179 :	4.0;	146 :	4.0;	28 :	4.0;	87 :	4.8;	84 :	5.0;	59 :	5.0;	39 :	5.0;	64 :	5.0;	31 :	5.3;	95 :	6.0;	134 :	6.0;	12 :	6.0;	14 :	6.0;	1 :	6.0;	77 :	6.0;	47 :	6.5;	6 :	6.5;	8 :	7.0;	11 :	7.0;	78 :	7.0;	70 :	8.0;	41 :	8.0;	32 :	8.0;	158 :	8.0;	76 :	8.0;	183 :	8.75;	29 :	9.0;	15 :	9.0;	38 :	9.0;	75 :	9.0;	65 :	9.25;	46 :	10.0;	37 :	10.0;	4 :	10.0;	69 :	11.0;	33 :	11.0;	97 :	11.5;	36 :	12.0;	57 :	12.0;	7 :	13.0;	194 :	14.0;	106 :	15.0;	96 :	15.0;	49 :	19.0;	93 :	19.8;	45 :	23.0;	34 :	23.0;	18 :	24.05;	5 :	24.3333333333;	85 :	25.0;	42 :	31.0;	40 :	32.0;	67 :	32.8;	52 :	34.4;	44 :	37.0;	17 :	39.55;	68 :	59.0;
Origin 17
	186 :	0.5;	77 :	0.8;	89 :	0.8;	68 :	1.25;	87 :	1.5;	85 :	2.0;	29 :	2.0;	96 :	2.0;	67 :	2.0;	188 :	2.0;	145 :	2.5;	36 :	3.0;	79 :	3.0;	32 :	3.0;	5 :	4.0;	165 :	4.0;	2 :	4.0;	192 :	5.0;	18 :	6.0;	10 :	6.0;	8 :	7.0;	40 :	11.8;	16 :	16.0;
Origin 18
	193 :	0.8;	80 :	0.8;	112 :	2.0;	36 :	2.0;	32 :	2.0;	58 :	2.0;	20 :	2.8;	44 :	2.8;	16 :	3.0;	15 :	3.0;	6 :	4.0;	7 :	4.0;	93 :	4.0;	38 :	5.0;	34 :	5.0;	169 :	5.0;	67 :	5.0;	173 :	10.0;	85 :	11.0;
Origin 19
	60 :	0.4;	177 :	0.8;	41 :	0.8;	153 :	0.8;	157 :	0.8;	131 :	0.8;	71 :	1.0;	100 :	1.0;	158 :	1.0;	51 :	1.0;	88 :	1.0;	37 :	1.33333333333;	139 :	1.33333333333;	128 :	2.0;	46 :	2.0;	130 :	2.0;	107 :	2.0;	190 :	2.0;	27 :	2.0;	164 :	2.0;	194 :	2.0;	28 :	2.0;	169 :	2.0;	116 :	2.0;	155 :	2.4;	12 :	2.5;	167 :	2.5;	9 :	2.8;	186 :	2.8;	33 :	2.8;	93 :	3.0;	182 :	3.0;	129 :	3.0;	133 :	3.0;	57 :	3.0;	171 :	3.0;	35 :	3.0;	127 :	3.1;	146 :	3.66666666667;	11 :	3.8;	183 :	4.0;	98 :	4.0;	73 :	4.0;	47 :	4.0;	132 :	4.0;	32 :	4.0;	44 :	4.8;	62 :	5.0;	174 :	5.0;	178 :	5.0;	70 :	5.0;	161 :	5.0;	63 :	5.0;	106 :	5.66666666667;	163 :	5.8;	39 :	6.0;	124 :	6.0;	45 :	6.0;	134 :	6.0;	26 :	6.0;	48 :	6.5;	7 :	6.6;	31 :	6.8;	8 :	7.0;	154 :	7.0;	185 :	7.0;	102 :	7.0;	135 :	7.4;	30 :	7.5;	66 :	7.8;	49 :	8.5;	95 :	8.7;	42 :	8.8;	52 :	8.8;	4 :	9.06666666667;	89 :	9.5;	34 :	9.8;	75 :	9.8;	6 :	10.0;	1 :	10.0;	145 :	10.0;	86 :	10.3;	24 :	10.5;	56 :	11.0;	192 :	11.8;	180 :	12.0;	40 :	12.6;	173 :	13.6666666667;	36 :	13.8;	160 :	14.0;	191 :	14.0;	77 :	15.0;	78 :	15.9;	162 :	16.0;	80 :	16.5;	65 :	17.0;	69 :	17.0;	96 :	17.0;	193 :	18.0;	29 :	18.6;	85 :	19.0;	188 :	20.5;	10 :	21.5;	22 :	22.3333333333;	87 :	22.4;	18 :	22.5;	20 :	22.5;	17 :	23.0;	2 :	26.8;	15 :	27.0;	21 :	28.0;	67 :	29.8;	79 :	30.0;	5 :	32.5;	68 :	45.2666666667;	16 :	59.7333333333;
Origin 20
	31 :	1.5;	77 :	2.0;	5 :	2.0;	27 :	2.0;	180 :	2.0;	34 :	2.0;	178 :	2.0;	188 :	2.0;	52 :	2.0;	17 :	2.0;	70 :	2.0;	51 :	2.0;	162 :	3.0;	138 :	3.0;	2 :	3.0;	144 :	3.0;	14 :	3.0;	96 :	4.0;	21 :	4.0;	41 :	4.0;	16 :	4.0;	18 :	4.0;	183 :	5.0;	10 :	5.0;	68 :	5.0;	49 :	5.0;	32 :	6.66666666667;	78 :	7.0;	26 :	8.0;	65 :	8.0;	67 :	8.0;	160 :	9.0;	19 :	10.0;
Origin 21
	149 :	0.5;	79 :	0.8;	183 :	1.0;	71 :	1.0;	135 :	1.33333333333;	20 :	1.6;	38 :	1.66666666667;	64 :	2.0;	148 :	2.0;	159 :	2.0;	86 :	2.0;	48 :	2.0;	124 :	2.0;	62 :	2.0;	182 :	2.0;	56 :	2.0;	155 :	2.0;	32 :	2.0;	145 :	2.0;	72 :	2.0;	188 :	2.0;	187 :	2.0;	131 :	2.0;	176 :	2.0;	49 :	2.8;	51 :	3.0;	137 :	3.0;	140 :	3.0;	171 :	3.0;	127 :	3.0;	150 :	3.0;	170 :	3.0;	94 :	3.0;	184 :	3.0;	88 :	3.33333333333;	134 :	3.5;	43 :	3.8;	100 :	4.0;	167 :	4.0;	27 :	4.0;	3 :	4.0;	181 :	4.0;	1 :	4.0;	189 :	4.0;	139 :	4.0;	12 :	4.0;	92 :	4.2;	15 :	4.3;	194 :	4.5;	154 :	4.8;	107 :	5.0;	87 :	5.0;	186 :	5.0;	99 :	5.0;	158 :	5.0;	98 :	5.0;	10 :	5.0;	169 :	5.0;	63 :	5.6;	190 :	5.6;	22 :	5.8;	45 :	6.0;	66 :	6.6;	31 :	7.0;	85 :	7.0;	42 :	7.26666666667;	46 :	7.4;	30 :	7.5;	34 :	7.5;	174 :	7.8;	175 :	8.0;	136 :	8.0;	33 :	8.0;	75 :	8.5;	40 :	8.8;	96 :	8.8;	180 :	9.0;	2 :	9.0;	153 :	9.5;	8 :	10.9666666667;	29 :	11.0;	69 :	11.0;	7 :	11.9;	18 :	12.0;	178 :	12.0;	80 :	12.3333333333;	157 :	12.5;	193 :	12.6;	4 :	13.0;	36 :	13.0;	103 :	14.5;	5 :	14.8;	52 :	15.6666666667;	9 :	16.8;	168 :	17.5;	76 :	18.0;	17 :	18.8;	173 :	19.0;	192 :	19.0;	44 :	19.1;	160 :	21.5;	67 :	22.4;	26 :	24.3;	191 :	26.8;	70 :	26.8;	161 :	31.1666666667;	95 :	31.5;	68 :	32.8;	19 :	35.6;	78 :	35.8;	77 :	36.0333333333;	65 :	42.6;	16 :	48.6;	162 :	49.0;	163 :	56.4;
Origin 22
	160 :	0.4;	80 :	0.8;	75 :	0.8;	166 :	0.8;	3 :	0.8;	179 :	0.8;	28 :	0.8;	117 :	2.0;	170 :	2.0;	14 :	2.0;	43 :	2.0;	118 :	2.0;	63 :	2.0;	60 :	2.0;	155 :	2.0;	167 :	2.0;	8 :	2.0;	48 :	2.0;	21 :	2.0;	20 :	2.0;	185 :	2.0;	145 :	2.0;	105 :	2.0;	123 :	2.0;	17 :	2.33333333333;	114 :	3.0;	4 :	3.0;	172 :	3.0;	51 :	3.0;	97 :	3.0;	112 :	3.5;	176 :	4.0;	124 :	4.0;	86 :	4.0;	62 :	4.0;	49 :	4.0;	109 :	4.0;	102 :	4.0;	186 :	4.4;	39 :	4.5;	87 :	4.5;	154 :	4.8;	2 :	4.8;	19 :	5.0;	76 :	5.0;	41 :	5.0;	174 :	6.0;	79 :	6.0;	98 :	6.0;	30 :	6.0;	42 :	6.0;	46 :	6.0;	139 :	6.0;	193 :	7.0;	162 :	7.0;	161 :	7.0;	64 :	7.0;	94 :	7.0;	143 :	8.0;	33 :	8.0;	178 :	8.5;	173 :	8.6;	37 :	8.8;	65 :	8.8;	25 :	9.0;	10 :	9.0;	96 :	9.0;	85 :	9.0;	153 :	9.66666666667;	24 :	10.0;	158 :	10.0;	15 :	11.0;	95 :	11.0;	1 :	11.8;	52 :	12.0;	72 :	12.0;	191 :	12.0;	45 :	12.4666666667;	159 :	12.8;	7 :	13.0;	40 :	14.0;	32 :	14.8;	78 :	15.0;	5 :	15.5;	192 :	15.6666666667;	107 :	16.0;	34 :	16.4;	31 :	18.0;	66 :	19.6;	18 :	23.8;	27 :	24.0;	163 :	24.0;	36 :	24.8;	44 :	25.0;	77 :	25.4666666667;	69 :	28.0;	70 :	29.6;	71 :	31.0;	68 :	37.6;	157 :	43.0666666667;	67 :	44.6;	29 :	50.8;	26 :	104.0;	16 :	104.933333333;
Origin 23
	6 :	0.8;	162 :	0.8;	25 :	0.8;	103 :	0.8;	179 :	0.8;	9 :	0.8;	96 :	2.0;	108 :	2.0;	186 :	2.0;	73 :	2.0;	21 :	2.0;	134 :	2.0;	52 :	2.0;	39 :	2.0;	89 :	2.0;	19 :	2.0;	193 :	2.0;	18 :	2.0;	161 :	2.0;	47 :	2.8;	185 :	2.8;	105 :	3.0;	191 :	3.0;	102 :	3.0;	72 :	3.0;	171 :	3.0;	112 :	3.0;	164 :	3.0;	167 :	3.0;	163 :	3.8;	20 :	4.0;	36 :	4.0;	4 :	4.0;	129 :	4.0;	174 :	4.0;	70 :	4.0;	176 :	4.5;	153 :	5.0;	85 :	5.0;	177 :	5.0;	40 :	5.0;	29 :	5.8;	95 :	5.8;	46 :	6.0;	67 :	6.0;	71 :	6.0;	24 :	6.5;	160 :	6.8;	80 :	6.8;	127 :	7.0;	107 :	7.0;	173 :	8.0;	7 :	8.0;	159 :	8.8;	8 :	9.0;	178 :	10.0;	155 :	11.0;	168 :	11.0;	68 :	14.6;	98 :	17.0;	66 :	19.0666666667;	154 :	23.0;	26 :	25.0;	65 :	27.0;	16 :	28.4;	157 :	33.3;	22 :	35.0;
Origin 24
	34 :	0.4;	31 :	0.75;	170 :	0.8;	1 :	1.33333333333;	146 :	2.0;	11 :	2.0;	104 :	2.0;	49 :	2.0;	17 :	2.0;	175 :	2.0;	40 :	2.0;	118 :	2.33333333333;	68 :	2.8;	8 :	3.0;	9 :	3.0;	185 :	3.0;	66 :	3.0;	160 :	3.0;	50 :	3.0;	70 :	3.0;	77 :	3.0;	193 :	3.0;	37 :	3.0;	2 :	3.0;	180 :	3.0;	173 :	3.5;	154 :	4.0;	30 :	4.0;	78 :	5.0;	80 :	5.0;	85 :	5.0;	7 :	5.0;	161 :	6.0;	71 :	6.0;	18 :	6.0;	19 :	6.0;	153 :	7.0;	42 :	7.0;	176 :	8.0;	44 :	9.0;	158 :	9.0;	20 :	9.0;	29 :	9.0;	41 :	10.0;	168 :	14.0;	69 :	17.0;	22 :	19.0;	67 :	20.0;	16 :	25.0;	157 :	25.5;	72 :	33.0;	26 :	51.0;
Origin 25
	20 :	0.8;	58 :	1.5;	3 :	2.0;	178 :	2.0;	80 :	2.0;	44 :	2.0;	155 :	2.0;	154 :	2.0;	19 :	2.0;	96 :	2.0;	24 :	2.0;	30 :	3.0;	36 :	3.0;	28 :	3.0;	77 :	3.0;	186 :	3.0;	153 :	3.0;	98 :	3.0;	166 :	3.0;	93 :	3.0;	71 :	3.0;	34 :	3.0;	69 :	3.0;	7 :	4.0;	129 :	4.0;	18 :	4.5;	158 :	5.0;	68 :	5.0;	173 :	6.0;	163 :	7.0;	70 :	8.0;	29 :	9.0;	52 :	9.0;	107 :	9.0;	22 :	12.0;	159 :	13.0;	157 :	16.0;	26 :	22.0;	16 :	23.5;
Origin 26
	23 :	0.8;	112 :	1.0;	117 :	2.0;	192 :	2.0;	34 :	2.0;	7 :	2.0;	4 :	2.0;	5 :	2.0;	2 :	2.0;	45 :	2.0;	167 :	2.0;	42 :	2.0;	96 :	2.0;	154 :	2.0;	110 :	2.0;	50 :	2.0;	106 :	2.0;	21 :	2.0;	44 :	2.8;	73 :	3.0;	139 :	3.0;	6 :	3.0;	27 :	3.0;	144 :	3.0;	163 :	3.0;	108 :	3.0;	175 :	3.0;	78 :	3.0;	170 :	3.0;	118 :	3.0;	85 :	4.0;	176 :	4.0;	35 :	4.0;	82 :	4.0;	33 :	5.0;	160 :	5.0;	153 :	5.0;	173 :	5.0;	186 :	6.0;	159 :	6.0;	41 :	6.0;	79 :	6.0;	162 :	6.5;	113 :	7.0;	69 :	7.0;	18 :	7.5;	178 :	7.8;	177 :	8.0;	80 :	8.0;	98 :	8.0;	65 :	8.0;	25 :	10.0;	191 :	10.0;	72 :	11.0;	19 :	13.0;	71 :	13.0;	52 :	13.0;	20 :	14.0;	36 :	15.0;	66 :	15.0;	29 :	18.0;	183 :	19.0;	24 :	20.0;	22 :	23.0;	68 :	23.5;	70 :	26.0;	67 :	26.0;	158 :	31.0;	157 :	34.3333333333;	16 :	69.0;
Origin 27
	38 :	0.8;	192 :	0.8;	59 :	1.0;	41 :	1.8;	6 :	2.0;	80 :	2.0;	107 :	2.0;	87 :	2.0;	47 :	2.0;	154 :	2.0;	2 :	2.0;	52 :	2.5;	32 :	2.5;	72 :	2.8;	162 :	3.0;	62 :	3.0;	53 :	3.0;	157 :	3.0;	71 :	3.0;	194 :	4.0;	94 :	4.0;	163 :	4.0;	17 :	4.0;	99 :	4.0;	179 :	4.0;	14 :	4.0;	193 :	4.0;	25 :	4.5;	49 :	5.0;	48 :	5.0;	50 :	5.0;	79 :	5.0;	138 :	6.0;	77 :	6.0;	78 :	6.0;	8 :	6.0;	35 :	6.0;	37 :	6.0;	96 :	7.0;	93 :	8.0;	57 :	8.0;	42 :	8.8;	7 :	9.8;	15 :	9.8;	85 :	10.0;	75 :	10.0;	65 :	10.8;	173 :	10.8;	26 :	11.0;	20 :	11.0;	159 :	11.0;	158 :	11.0;	18 :	13.0;	28 :	14.0;	39 :	15.0;	31 :	17.0;	22 :	17.0;	44 :	17.8;	45 :	18.8;	40 :	20.5;	19 :	23.8;	34 :	32.0;	30 :	33.5;	70 :	35.3;	36 :	37.8;	66 :	40.8;	16 :	42.4333333333;	69 :	44.0;	68 :	78.5;	67 :	111.8;	29 :	132.65;
Origin 28
	49 :	0.2;	24 :	0.8;	50 :	1.5;	4 :	2.0;	187 :	2.0;	72 :	2.0;	30 :	2.0;	71 :	2.0;	47 :	2.0;	157 :	3.0;	192 :	3.0;	7 :	3.0;	174 :	3.0;	87 :	3.0;	146 :	3.0;	165 :	3.0;	10 :	4.0;	62 :	4.0;	12 :	4.0;	191 :	4.0;	46 :	4.8;	8 :	5.5;	31 :	5.8;	52 :	5.8;	85 :	5.8;	33 :	7.0;	162 :	7.0;	14 :	7.0;	2 :	7.4;	96 :	8.8;	186 :	9.0;	69 :	10.6666666667;	193 :	11.0;	57 :	11.0;	70 :	11.0;	158 :	12.0;	25 :	12.0;	66 :	12.0;	43 :	12.0;	44 :	12.3;	17 :	12.8;	95 :	13.8;	15 :	13.8;	134 :	14.0;	19 :	15.0;	38 :	15.0;	22 :	17.0;	37 :	17.0;	35 :	18.0;	194 :	18.0;	27 :	19.0;	42 :	19.5;	32 :	20.0;	20 :	23.0;	39 :	23.5;	78 :	23.5;	75 :	27.0;	5 :	30.0;	41 :	31.0;	26 :	35.0;	40 :	38.0;	45 :	40.3;	18 :	43.0;	67 :	52.0;	29 :	55.0;	34 :	79.0;	36 :	88.3;	16 :	107.8;	68 :	115.6;
Origin 29
	134 :	0.2;	133 :	0.4;	155 :	0.4;	132 :	0.8;	6 :	0.8;	104 :	1.0;	165 :	1.5;	41 :	2.0;	179 :	2.0;	1 :	2.0;	114 :	2.0;	170 :	2.0;	168 :	2.0;	167 :	2.0;	25 :	2.0;	161 :	2.8;	43 :	3.0;	190 :	3.0;	9 :	3.0;	145 :	3.0;	87 :	3.0;	79 :	3.0;	130 :	3.0;	144 :	3.0;	74 :	3.0;	162 :	3.4;	63 :	4.0;	151 :	4.0;	177 :	4.0;	146 :	4.0;	76 :	4.0;	77 :	4.8;	15 :	5.0;	97 :	5.0;	38 :	5.0;	8 :	5.0;	185 :	5.0;	35 :	5.0;	4 :	5.0;	102 :	5.0;	101 :	5.0;	49 :	5.0;	176 :	6.0;	103 :	6.0;	164 :	6.0;	23 :	6.0;	116 :	6.8;	194 :	6.8;	20 :	7.0;	33 :	7.66666666667;	160 :	8.0;	192 :	8.0;	158 :	8.3;	193 :	8.8;	98 :	9.0;	94 :	9.0;	120 :	9.0;	39 :	9.3;	173 :	10.0;	163 :	10.0;	47 :	10.5;	186 :	11.0;	2 :	11.0;	178 :	11.0;	46 :	12.0;	5 :	12.8;	137 :	13.0;	56 :	14.0;	80 :	14.0;	95 :	14.0666666667;	191 :	14.8;	37 :	15.0;	28 :	15.0;	10 :	16.3;	85 :	16.3333333333;	24 :	16.6;	127 :	16.6666666667;	153 :	17.0;	19 :	18.0;	71 :	18.8;	42 :	20.0;	96 :	20.5;	75 :	22.5;	45 :	22.8;	154 :	25.0;	17 :	27.3;	32 :	28.0;	52 :	28.0;	18 :	28.4;	7 :	28.7666666667;	40 :	29.3;	159 :	29.5;	78 :	31.5;	22 :	35.8;	44 :	48.6;	65 :	50.8;	31 :	53.0;	157 :	53.2;	36 :	55.6;	34 :	62.9;	26 :	85.8;	27 :	100.766666667;	30 :	103.6;	69 :	140.3;	16 :	170.6;	66 :	177.766666667;	70 :	209.8;	68 :	227.4;	67 :	286.6;
Origin 30
	93 :	0.4;	95 :	0.8;	41 :	0.8;	106 :	0.8;	104 :	0.8;	20 :	0.8;	112 :	0.8;	120 :	0.8;	124 :	0.8;	145 :	1.0;	158 :	1.5;	178 :	1.5;	71 :	2.0;	169 :	2.0;	72 :	2.0;	24 :	2.0;	61 :	2.0;	28 :	2.0;	127 :	2.0;	185 :	2.0;	154 :	2.0;	7 :	2.66666666667;	57 :	2.66666666667;	48 :	2.8;	107 :	2.8;	188 :	3.0;	43 :	3.0;	162 :	3.0;	163 :	3.0;	130 :	3.0;	176 :	3.0;	192 :	3.0;	123 :	3.0;	98 :	4.0;	8 :	4.0;	173 :	4.0;	60 :	4.0;	39 :	4.0;	89 :	5.0;	46 :	5.0;	76 :	5.0;	183 :	5.0;	153 :	6.0;	51 :	6.0;	4 :	6.5;	35 :	6.5;	10 :	6.8;	82 :	7.0;	79 :	7.0;	186 :	7.0;	155 :	8.0;	96 :	8.0;	47 :	8.0;	164 :	8.0;	52 :	8.0;	17 :	8.0;	80 :	8.0;	37 :	8.0;	33 :	8.5;	97 :	9.0;	75 :	9.0;	40 :	9.5;	181 :	10.0;	85 :	10.0;	159 :	10.3333333333;	49 :	11.0;	9 :	11.0;	5 :	11.8;	65 :	12.6666666667;	15 :	13.0;	19 :	14.0;	45 :	14.4;	157 :	15.0;	44 :	16.0;	77 :	16.0;	78 :	17.8;	32 :	17.8;	31 :	18.4;	18 :	19.4666666667;	34 :	23.5;	36 :	24.0;	22 :	26.0;	42 :	31.3;	26 :	34.3;	16 :	62.7666666667;	69 :	72.6;	70 :	73.95;	66 :	74.0;	27 :	74.1666666667;	68 :	75.6;	67 :	193.3;	29 :	257.9;
Origin 31
	106 :	0.8;	3 :	0.8;	2 :	0.8;	14 :	0.8;	146 :	2.0;	53 :	2.0;	155 :	2.0;	166 :	2.0;	154 :	2.0;	183 :	2.0;	6 :	2.8;	160 :	2.8;	46 :	3.0;	13 :	3.0;	173 :	3.0;	180 :	3.0;	142 :	3.0;	43 :	3.5;	21 :	3.5;	185 :	4.0;	60 :	4.0;	101 :	4.0;	88 :	4.0;	174 :	4.8;	188 :	5.0;	75 :	5.0;	114 :	5.0;	8 :	5.0;	50 :	5.0;	37 :	5.0;	158 :	5.5;	190 :	6.0;	1 :	6.0;	148 :	6.0;	64 :	7.0;	24 :	7.0;	33 :	7.0;	4 :	7.0;	193 :	7.0;	167 :	7.0;	100 :	7.0;	57 :	7.0;	98 :	7.0;	136 :	7.0;	134 :	7.4;	133 :	7.5;	41 :	7.8;	145 :	8.0;	38 :	8.0;	48 :	8.0;	103 :	8.0;	94 :	8.0;	79 :	8.5;	191 :	8.8;	194 :	8.8;	153 :	9.0;	93 :	9.0;	63 :	9.0;	5 :	9.33333333333;	186 :	10.0;	32 :	11.0;	20 :	12.0;	10 :	12.0;	80 :	12.5;	49 :	12.8;	107 :	13.0;	15 :	13.4;	159 :	13.5;	85 :	14.4;	69 :	14.9;	192 :	15.0;	176 :	16.0;	72 :	16.5;	39 :	17.0;	40 :	17.5;	42 :	18.0;	96 :	18.0;	7 :	18.8;	22 :	18.8;	52 :	19.8;	35 :	20.0;	163 :	20.8;	97 :	23.5;	65 :	24.8;	17 :	25.6;	36 :	27.0;	44 :	27.8;	28 :	28.0;	66 :	30.3;	19 :	30.5;	71 :	32.0;	95 :	32.6666666667;	76 :	33.5;	26 :	38.0;	45 :	39.0;	27 :	42.5;	18 :	42.9;	77 :	43.6;	157 :	48.0;	68 :	57.9;	78 :	58.4;	30 :	64.8333333333;	34 :	79.7;	70 :	86.26;	29 :	100.1;	67 :	107.2;	16 :	137.1;
Origin 32
	96 :	0.8;	138 :	1.0;	30 :	2.0;	12 :	2.0;	77 :	3.0;	191 :	3.0;	151 :	3.0;	180 :	3.0;	71 :	3.0;	88 :	3.0;	19 :	3.0;	91 :	3.0;	10 :	3.0;	163 :	3.0;	80 :	3.0;	164 :	3.0;	14 :	3.0;	154 :	3.0;	194 :	3.0;	185 :	3.0;	106 :	4.0;	8 :	4.0;	20 :	4.0;	43 :	5.0;	4 :	5.0;	64 :	5.5;	31 :	6.0;	192 :	6.0;	39 :	7.0;	97 :	7.0;	29 :	8.0;	17 :	8.0;	159 :	8.0;	190 :	9.0;	70 :	9.0;	95 :	9.0;	28 :	10.0;	60 :	10.0;	48 :	10.0;	1 :	11.0;	38 :	12.0;	27 :	12.0;	49 :	12.0;	15 :	12.0;	85 :	12.0;	37 :	13.0;	69 :	14.0;	44 :	15.0;	22 :	17.0;	42 :	19.0;	5 :	19.0;	65 :	20.0;	78 :	21.0;	75 :	22.0;	18 :	24.0;	33 :	24.0;	26 :	25.5;	41 :	29.5;	57 :	30.0;	7 :	34.0;	34 :	38.0;	52 :	50.0;	67 :	56.0;	36 :	126.3;	45 :	133.5;	16 :	143.6;	68 :	146.5;	40 :	166.9;
Origin 33
	4 :	0.8;	87 :	1.0;	191 :	1.5;	103 :	2.0;	186 :	2.0;	127 :	2.0;	139 :	2.0;	28 :	2.0;	9 :	2.0;	2 :	2.8;	80 :	3.0;	62 :	3.0;	51 :	3.0;	50 :	3.0;	163 :	3.0;	70 :	3.0;	55 :	3.0;	69 :	3.0;	1 :	4.0;	193 :	4.0;	173 :	4.0;	21 :	4.0;	7 :	4.8;	46 :	5.0;	39 :	5.0;	79 :	5.0;	118 :	5.0;	95 :	5.8;	6 :	5.8;	12 :	6.0;	31 :	6.0;	135 :	6.0;	5 :	6.05;	84 :	6.8;	27 :	7.0;	38 :	7.0;	59 :	7.0;	76 :	7.0;	64 :	7.0;	82 :	8.0;	75 :	8.0;	8 :	8.0;	96 :	8.3;	67 :	8.4;	29 :	8.8;	194 :	9.0;	19 :	10.0;	34 :	10.8;	48 :	10.8;	47 :	11.0;	18 :	13.0;	42 :	13.0;	41 :	13.4666666667;	26 :	14.0;	30 :	14.0;	78 :	14.0;	44 :	15.0;	10 :	15.5;	15 :	16.0;	85 :	17.8;	17 :	18.0;	60 :	23.3;	32 :	27.8;	49 :	34.3333333333;	52 :	39.5;	16 :	43.2;	57 :	43.5;	36 :	46.6;	68 :	49.8;	45 :	68.8;	40 :	83.6;
Origin 34